/*--------------------------------*- C++ -*----------------------------------*\
| =========                 |                                                 |
| \\      /  F ield         | OpenFOAM: The Open Source CFD Toolbox           |
|  \\    /   O peration     | Version:  plus                                  |
|   \\  /    A nd           | Web:      www.OpenFOAM.com                      |
|    \\/     M anipulation  |                                                 |
\*---------------------------------------------------------------------------*/
FoamFile
{
    version     2.0;
    format      ascii;
    class       dictionary;
    location    "system";
    object      meshDict;
}
// * * * * * * * * * * * * * * * * * * * * * * * * * * * * * * * * * * * * * //

//meshDict for cartesianMesh
//Mandatory settings

surfaceFile "constant/triSurface/mesh.stl";     //surface file that points to the surfaceFile by relative path
maxCellSize 0.5;                                // maximum allowed cell size in metres [m]

//Refinement Settings
boundaryCellSize 0.25;                          //size of the cell at the boundary
boundaryCellSizeRefinementThickness 0.5;        //distance from the boundary at which boundary cell size will be used
minCellSize 0.2;                                //minimum cell size allowed in the automatic refinement procedure

//objectRefinement
objectRefinements
{
    ACBox
    {
        type                        box;
        cellSize                    0.01;
        centre                      (0 0 3);
        lengthX                     0.5;
        lengthY                     0.5;
        lengthZ                     0.5;
    }
}