/*--------------------------------*- C++ -*----------------------------------*\
| =========                 |                                                 |
| \\      /  F ield         | OpenFOAM: The Open Source CFD Toolbox           |
|  \\    /   O peration     | Version:  v1712                                 |
|   \\  /    A nd           | Web:      www.OpenFOAM.com                      |
|    \\/     M anipulation  |                                                 |
\*---------------------------------------------------------------------------*/
FoamFile
{
    version     2.0;
    format      ascii;
    class       dictionary;
    location    "constant/polyMesh";
    object      meshMetaDict;
}
// * * * * * * * * * * * * * * * * * * * * * * * * * * * * * * * * * * * * * //

surfaceFile     "constant/triSurface/mesh.stl";

surfaceMeta
{
    nPoints         68;
    nFacets         132;
    nPatches        3;
    nFeatureEdges   0;
    patches
    {
        Walls
        {
            type            empty;
            nFacets         122;
        }
        inlet
        {
            type            empty;
            nFacets         8;
        }
        outlet
        {
            type            empty;
            nFacets         2;
        }
    }
    pointSubsets
    {
    }
    facetSubsets
    {
    }
    featureEdgeSubsets
    {
    }
}
